Version 4
SHEET 1 880 680
WIRE 16 48 -128 48
WIRE -16 64 -80 64
WIRE -16 96 -48 96
WIRE -80 112 -80 64
WIRE 80 112 16 112
WIRE -48 160 -48 96
WIRE 240 160 -48 160
WIRE 192 176 128 176
WIRE 352 176 288 176
WIRE 48 192 48 80
WIRE 48 192 -80 192
WIRE -128 224 -128 48
WIRE 128 224 128 176
WIRE 128 224 -128 224
WIRE 240 256 240 160
WIRE 240 256 192 256
WIRE 288 256 240 256
WIRE 80 272 80 112
WIRE 80 272 16 272
WIRE 352 272 352 176
WIRE 352 272 80 272
WIRE 80 288 80 272
WIRE 16 304 16 272
WIRE 16 304 -128 304
FLAG 80 288 0
SYMBOL Opamps\\LTC6078 208 80 R0
SYMATTR InstName U1
SYMBOL Opamps\\LTC6078 16 80 R0
SYMATTR InstName U2
SYMBOL res 176 160 R0
SYMATTR InstName R1
SYMATTR Value 200
SYMBOL res 272 160 R0
SYMATTR InstName R2
SYMATTR Value 200
SYMBOL res -96 96 R0
SYMATTR InstName R3
SYMATTR Value 100k
SYMBOL voltage -128 208 R0
WINDOW 123 0 0 Left 2
WINDOW 39 0 0 Left 2
SYMATTR InstName V1
SYMATTR Value 5
TEXT -162 324 Left 2 !.op
